src/test/resources/loadflowreferences/loadflow_microgrid-bc-assembled_basic.xiidm
<?xml version="1.0" encoding="UTF-8"?>
<iidm:network xmlns:iidm="http://www.powsybl.org/schema/iidm/1_9" xmlns:clbn="http://www.powsybl.org/schema/iidm/ext/cgmes_line_boundary_node/1_0" xmlns:ctc="http://www.powsybl.org/schema/iidm/ext/cgmes_tap_changers/1_0" xmlns:crc="http://www.powsybl.org/schema/iidm/ext/coordinated_reactive_control/1_0" xmlns:csshm="http://www.powsybl.org/schema/iidm/ext/cgmes_ssh_metadata/1_0" xmlns:bv="http://www.powsybl.org/schema/iidm/ext/base_voltage_mapping/1_0" xmlns:csm="http://www.powsybl.org/schema/iidm/ext/cgmes_sv_metadata/1_0" xmlns:cc="http://www.powsybl.org/schema/iidm/ext/cim_characteristics/1_0" xmlns:slt="http://www.powsybl.org/schema/iidm/ext/slack_terminal/1_5" id="urn:uuid:d400c631-75a0-4c30-8aed-832b0d282e73" caseDate="2017-10-02T09:30:00.000Z" forecastDistance="1546418" sourceFormat="CGMES" minimumValidationLevel="STEADY_STATE_HYPOTHESIS">
    <iidm:property name="CGMES.EQ_ID" value="urn:uuid:77b55f87-fc1e-4046-9599-6c6b4f991a86"/>
    <iidm:property name="CGMES.SSH_ID" value="urn:uuid:52b712d1-f3b0-4a59-9191-79f2fb1e4c4e"/>
    <iidm:property name="CGMES.TP_ID#0" value="urn:uuid:f2f43818-09c8-4252-9611-7af80c398d20"/>
    <iidm:property name="CGMES.EQ_BD_ID" value="urn:uuid:2399cbd0-9a39-11e0-aa80-0800200c9a66"/>
    <iidm:property name="CGMES.SSH_ID#0" value="urn:uuid:66085ffe-dddf-4fc8-805c-2c7aa2097b90"/>
    <iidm:property name="CGMESModelDetail" value="bus-branch"/>
    <iidm:property name="CGMES.TP_BD_ID" value="urn:uuid:2399cbd1-9a39-11e0-aa80-0800200c9a66"/>
    <iidm:property name="CGMES.TP_ID" value="urn:uuid:5d32d257-1646-4906-a1f6-4d7ce3f91569"/>
    <iidm:substation id="87f7002b-056f-4a6a-a872-1744eea757e3" name="Anvers" country="BE" geographicalTags="ELIA-Anvers">
        <iidm:property name="CGMES.regionName" value="BE"/>
        <iidm:property name="CGMES.subRegionId" value="c1d5c0378f8011e08e4d00247eb1f55e"/>
        <iidm:property name="CGMES.regionId" value="c1d5bfc68f8011e08e4d00247eb1f55e"/>
        <iidm:voltageLevel id="d0486169-2205-40b2-895e-b672ecb9e5fc" name="220.0" nominalV="225.0" lowVoltageLimit="202.5" highVoltageLimit="247.5" topologyKind="BUS_BREAKER">
            <iidm:busBreakerTopology>
                <iidm:bus id="f70f6bad-eb8d-4b8f-8431-4ab93581514e" name="BE-Busbar_2" v="224.77731092654557" angle="-6.409141054188119"/>
            </iidm:busBreakerTopology>
            <iidm:load id="b1480a00-b427-4001-a26c-51954d2bb7e9" name="L-1230804819" loadType="UNDEFINED" p0="1.0" q0="0.0" bus="f70f6bad-eb8d-4b8f-8431-4ab93581514e" connectableBus="f70f6bad-eb8d-4b8f-8431-4ab93581514e" p="1.0" q="0.0">
                <iidm:alias type="CGMES.Terminal1">b9376bea-c75d-49f3-94ca-6a71fa0086a5</iidm:alias>
            </iidm:load>
        </iidm:voltageLevel>
    </iidm:substation>
    <iidm:substation id="37e14a0f-5e34-4647-a062-8bfd9305fa9d" name="PP_Brussels" country="BE" geographicalTags="ELIA-Brussels">
        <iidm:property name="CGMES.regionName" value="BE"/>
        <iidm:property name="CGMES.subRegionId" value="c1d5bfc88f8011e08e4d00247eb1f55e"/>
        <iidm:property name="CGMES.regionId" value="c1d5bfc68f8011e08e4d00247eb1f55e"/>
        <iidm:voltageLevel id="4ba71b59-ee2f-450b-9f7d-cc2f1cc5e386" name="10.5" nominalV="10.5" lowVoltageLimit="9.45" highVoltageLimit="11.55" topologyKind="BUS_BREAKER">
            <iidm:busBreakerTopology>
                <iidm:bus id="a81d08ed-f51d-4538-8d1e-fb2d0dbd128e" name="BE-Busbar_4" v="10.52319883466732" angle="-3.6773196205244525"/>
            </iidm:busBreakerTopology>
            <iidm:generator id="3a3b27be-b18b-4385-b557-6735d733baf0" name="BE-G1" energySource="OTHER" minP="50.0" maxP="200.0" ratedS="300.0" voltageRegulatorOn="true" targetP="90.0" targetV="115.5" targetQ="100.256" bus="a81d08ed-f51d-4538-8d1e-fb2d0dbd128e" connectableBus="a81d08ed-f51d-4538-8d1e-fb2d0dbd128e" p="-90.0" q="42.29818255102173">
                <iidm:alias type="CGMES.Terminal1">beffa353-7d10-421d-9c08-036b744b1cee</iidm:alias>
                <iidm:property name="CGMES.normalPF" value="0.0"/>
                <iidm:property name="CGMES.GeneratingUnit" value="18993b11-2966-4bce-bab9-d86103f83b53"/>
                <iidm:property name="CGMES.RegulatingControl" value="6ba406ce-78cf-4485-9b01-a34e584f1a8d"/>
                <iidm:regulatingTerminal id="a708c3bc-465d-4fe7-b6ef-6fa6408a62b0" side="TWO"/>
                <iidm:reactiveCapabilityCurve>
                    <iidm:point p="-100.0" minQ="-200.0" maxQ="200.0"/>
                    <iidm:point p="0.0" minQ="-300.0" maxQ="300.0"/>
                    <iidm:point p="100.0" minQ="-200.0" maxQ="200.0"/>
                </iidm:reactiveCapabilityCurve>
            </iidm:generator>
        </iidm:voltageLevel>
        <iidm:voltageLevel id="8bbd7e74-ae20-4dce-8780-c20f8e18c2e0" name="110.0" nominalV="110.0" lowVoltageLimit="99.0" highVoltageLimit="121.0" topologyKind="BUS_BREAKER">
            <iidm:busBreakerTopology>
                <iidm:bus id="5c74cb26-ce2f-40c6-951d-89091eb781b6" name="BE-Busbar_6" v="115.5" angle="-5.999820879111078"/>
            </iidm:busBreakerTopology>
            <iidm:load id="cb459405-cc14-4215-a45c-416789205904" name="BE-Load_1" loadType="UNDEFINED" p0="200.0" q0="90.0" bus="5c74cb26-ce2f-40c6-951d-89091eb781b6" connectableBus="5c74cb26-ce2f-40c6-951d-89091eb781b6" p="200.0" q="90.0">
                <iidm:alias type="CGMES.Terminal1">cbdf1842-74ed-4fce-a5d4-0296c82cbc92</iidm:alias>
            </iidm:load>
            <iidm:shunt id="d771118f-36e9-4115-a128-cc3d9ce3e3da" name="BE_S1" sectionCount="1" voltageRegulatorOn="false" targetV="110.0" targetDeadband="0.5" bus="5c74cb26-ce2f-40c6-951d-89091eb781b6" connectableBus="5c74cb26-ce2f-40c6-951d-89091eb781b6" p="0.0" q="-330.74481825">
                <iidm:alias type="CGMES.Terminal1">d5e2e58e-ccf6-47d9-b3bb-3088eb7a9b6c</iidm:alias>
                <iidm:property name="CGMES.RegulatingControl" value="4d50f86d-0d12-4ca3-9430-56bb05f9eee6"/>
                <iidm:shuntLinearModel bPerSection="0.024793" gPerSection="0.0" maximumSectionCount="1"/>
            </iidm:shunt>
        </iidm:voltageLevel>
        <iidm:voltageLevel id="929ba893-c9dc-44d7-b1fd-30834bd3ab85" name="21.0" nominalV="21.0" lowVoltageLimit="18.9" highVoltageLimit="23.1" topologyKind="BUS_BREAKER">
            <iidm:busBreakerTopology>
                <iidm:bus id="f96d552a-618d-4d0c-a39a-2dea3c411dee" name="BE-Busbar_5" v="21.987" angle="-5.99735145927903"/>
            </iidm:busBreakerTopology>
            <iidm:generator id="550ebe0d-f2b2-48c1-991f-cebea43a21aa" name="BE-G2" energySource="OTHER" minP="50.0" maxP="200.0" ratedS="300.0" voltageRegulatorOn="true" targetP="118.0" targetV="21.987" targetQ="18.720301" bus="f96d552a-618d-4d0c-a39a-2dea3c411dee" connectableBus="f96d552a-618d-4d0c-a39a-2dea3c411dee" p="-118.0" q="-88.8643980501262">
                <iidm:alias type="CGMES.Terminal1">4bb5407b-b4a5-416c-80ad-1a778ada2b9b</iidm:alias>
                <iidm:property name="CGMES.normalPF" value="0.0"/>
                <iidm:property name="CGMES.GeneratingUnit" value="5b7a4d43-09ec-4033-882d-64a76d557631"/>
                <iidm:property name="CGMES.RegulatingControl" value="84bf5be8-eb59-4555-b131-fce4d2d7775d"/>
                <iidm:minMaxReactiveLimits minQ="-200.0" maxQ="200.0"/>
            </iidm:generator>
        </iidm:voltageLevel>
        <iidm:voltageLevel id="b10b171b-3bc5-4849-bb1f-61ed9ea1ec7c" name="225.0" nominalV="225.0" lowVoltageLimit="202.5" highVoltageLimit="247.5" topologyKind="BUS_BREAKER">
            <iidm:busBreakerTopology>
                <iidm:bus id="99b219f3-4593-428b-a4da-124a54630178" name="BE_TR_BUS4" v="224.3451962421252" angle="-7.191980229340089"/>
            </iidm:busBreakerTopology>
            <iidm:load id="1c6beed6-1acf-42e7-ba55-0cc9f04bddd8" name="BE-Load_2" loadType="UNDEFINED" p0="200.0" q0="50.0" bus="99b219f3-4593-428b-a4da-124a54630178" connectableBus="99b219f3-4593-428b-a4da-124a54630178" p="200.0" q="50.0">
                <iidm:alias type="CGMES.Terminal1">a036b765-1669-4f64-acd3-1e8fbd513312</iidm:alias>
            </iidm:load>
        </iidm:voltageLevel>
        <iidm:voltageLevel id="469df5f7-058f-4451-a998-57a48e8a56fe" name="380.0" nominalV="380.0" lowVoltageLimit="342.0" highVoltageLimit="418.0" topologyKind="BUS_BREAKER">
            <iidm:busBreakerTopology>
                <iidm:bus id="e44141af-f1dc-44d3-bfa4-b674e5c953d7" name="BE_TR_BUS2" v="413.34562663058614" angle="-6.937005512788747"/>
            </iidm:busBreakerTopology>
            <iidm:shunt id="002b0a40-3957-46db-b84a-30420083558f" name="BE_S2" sectionCount="1" voltageRegulatorOn="false" targetV="380.0" targetDeadband="0.5" bus="e44141af-f1dc-44d3-bfa4-b674e5c953d7" connectableBus="e44141af-f1dc-44d3-bfa4-b674e5c953d7" p="1.1959822493824235" q="-59.115694040902646">
                <iidm:alias type="CGMES.Terminal1">22af3121-1a66-4546-bd80-4371f417c644</iidm:alias>
                <iidm:property name="CGMES.RegulatingControl" value="67971e8d-518a-408f-9e59-c7601da9a989"/>
                <iidm:shuntLinearModel bPerSection="3.46E-4" gPerSection="7.0E-6" maximumSectionCount="1"/>
            </iidm:shunt>
        </iidm:voltageLevel>
        <iidm:twoWindingsTransformer id="e482b89a-fa84-4ea9-8e70-a83d44790957" name="BE-TR2_3" r="9.481464576284766E-4" x="0.052911509061024486" g="0.0019138280377471303" b="-0.00917006295066167" ratedU1="110.34375" ratedU2="10.5" bus1="5c74cb26-ce2f-40c6-951d-89091eb781b6" connectableBus1="5c74cb26-ce2f-40c6-951d-89091eb781b6" voltageLevelId1="8bbd7e74-ae20-4dce-8780-c20f8e18c2e0" bus2="a81d08ed-f51d-4538-8d1e-fb2d0dbd128e" connectableBus2="a81d08ed-f51d-4538-8d1e-fb2d0dbd128e" voltageLevelId2="4ba71b59-ee2f-450b-9f7d-cc2f1cc5e386" p1="-89.68837473225247" q1="47.906929914151675" p2="90.00021112551165" q2="-42.29818255102173">
            <iidm:alias type="CGMES.TransformerEnd2">35651e25-a77a-46a1-92f4-443d6acce90e</iidm:alias>
            <iidm:alias type="CGMES.RatioTapChanger2">83cc66dd-8d93-4a2c-8103-f1f5a9cf7e2e</iidm:alias>
            <iidm:alias type="CGMES.TransformerEnd1">f58281c5-862a-465e-97ec-d809be6e24ab</iidm:alias>
            <iidm:alias type="CGMES.Terminal1">ca7974cf-b25e-4898-9221-7154233e5eb2</iidm:alias>
            <iidm:alias type="CGMES.Terminal2">1182d878-2eaa-4eec-91be-ce7b2b1e7f9a</iidm:alias>
            <iidm:ratioTapChanger lowTapPosition="1" tapPosition="14" targetDeadband="0.5" loadTapChangingCapabilities="true" regulating="true" targetV="10.815">
                <iidm:terminalRef id="e482b89a-fa84-4ea9-8e70-a83d44790957" side="TWO"/>
                <iidm:step r="-23.961600000000004" x="-23.961600000000004" g="31.512498947900024" b="31.512498947900024" rho="0.872"/>
                <iidm:step r="-22.560000000000002" x="-22.560000000000002" g="29.132231404958688" b="29.132231404958688" rho="0.8799999999999999"/>
                <iidm:step r="-21.145599999999998" x="-21.145599999999998" g="26.816005194383564" b="26.816005194383564" rho="0.888"/>
                <iidm:step r="-19.718399999999992" x="-19.718399999999992" g="24.56154336734693" b="24.56154336734693" rho="0.896"/>
                <iidm:step r="-18.278399999999994" x="-18.278399999999994" g="22.366669277155605" b="22.366669277155605" rho="0.904"/>
                <iidm:step r="-16.825599999999994" x="-16.825599999999994" g="20.22930132348415" b="20.22930132348415" rho="0.9120000000000001"/>
                <iidm:step r="-15.359999999999996" x="-15.359999999999996" g="18.14744801512287" b="18.14744801512287" rho="0.92"/>
                <iidm:step r="-13.881600000000017" x="-13.881600000000017" g="16.119203329369824" b="16.119203329369824" rho="0.9279999999999999"/>
                <iidm:step r="-12.390400000000012" x="-12.390400000000012" g="14.142742347870563" b="14.142742347870563" rho="0.936"/>
                <iidm:step r="-10.886400000000007" x="-10.886400000000007" g="12.216317150244183" b="12.216317150244183" rho="0.944"/>
                <iidm:step r="-9.36960000000001" x="-9.36960000000001" g="10.338252948238136" b="10.338252948238136" rho="0.952"/>
                <iidm:step r="-7.8400000000000025" x="-7.8400000000000025" g="8.506944444444443" b="8.506944444444443" rho="0.96"/>
                <iidm:step r="-6.297600000000003" x="-6.297600000000003" g="6.720852400792299" b="6.720852400792299" rho="0.9679999999999999"/>
                <iidm:step r="-4.742400000000002" x="-4.742400000000002" g="4.978500403117447" b="4.978500403117447" rho="0.9760000000000001"/>
                <iidm:step r="-3.1743999999999994" x="-3.1743999999999994" g="3.278471809108341" b="3.278471809108341" rho="0.9839999999999999"/>
                <iidm:step r="-1.5936000000000061" x="-1.5936000000000061" g="1.6194068678460072" b="1.6194068678460072" rho="0.992"/>
                <iidm:step r="0.0" x="0.0" g="0.0" b="0.0" rho="1.0"/>
                <iidm:step r="1.6064000000000078" x="1.6064000000000078" g="-1.5810027714789676" b="-1.5810027714789676" rho="1.008"/>
                <iidm:step r="3.2256000000000062" x="3.2256000000000062" g="-3.1248062496124995" b="-3.1248062496124995" rho="1.016"/>
                <iidm:step r="4.857599999999995" x="4.857599999999995" g="-4.632568359375" b="-4.632568359375" rho="1.024"/>
                <iidm:step r="6.502399999999997" x="6.502399999999997" g="-6.105402319572139" b="-6.105402319572139" rho="1.032"/>
                <iidm:step r="8.16000000000001" x="8.16000000000001" g="-7.544378698224863" b="-7.544378698224863" rho="1.04"/>
                <iidm:step r="9.830400000000017" x="9.830400000000017" g="-8.950527358545557" b="-8.950527358545557" rho="1.048"/>
                <iidm:step r="11.513600000000013" x="11.513600000000013" g="-10.324839302112043" b="-10.324839302112043" rho="1.056"/>
                <iidm:step r="13.209600000000021" x="13.209600000000021" g="-11.66826841539942" b="-11.66826841539942" rho="1.064"/>
                <iidm:step r="14.91840000000002" x="14.91840000000002" g="-12.981733125417705" b="-12.981733125417705" rho="1.072"/>
                <iidm:step r="16.64000000000001" x="16.64000000000001" g="-14.266117969821678" b="-14.266117969821678" rho="1.08"/>
                <iidm:step r="18.374400000000012" x="18.374400000000012" g="-15.5222750865052" b="-15.5222750865052" rho="1.088"/>
                <iidm:step r="20.12160000000003" x="20.12160000000003" g="-16.751025627364292" b="-16.751025627364292" rho="1.096"/>
                <iidm:step r="21.881600000000013" x="21.881600000000013" g="-17.953161100609126" b="-17.953161100609126" rho="1.104"/>
                <iidm:step r="23.65440000000003" x="23.65440000000003" g="-19.129444645722295" b="-19.129444645722295" rho="1.112"/>
                <iidm:step r="25.44000000000002" x="25.44000000000002" g="-20.280612244897966" b="-20.280612244897966" rho="1.12"/>
                <iidm:step r="27.23840000000002" x="27.23840000000002" g="-21.407373874553603" b="-21.407373874553603" rho="1.1280000000000001"/>
            </iidm:ratioTapChanger>
            <iidm:currentLimits1 permanentLimit="1308.1">
                <iidm:temporaryLimit name="a5d3cd27-798c-4910-9729-6fc745346601" acceptableDuration="20" value="1408.1"/>
                <iidm:temporaryLimit name="7059bdb7-fa2d-4061-aea7-a88760835e2f" acceptableDuration="10" value="1508.1"/>
            </iidm:currentLimits1>
            <iidm:currentLimits2 permanentLimit="13746.4">
                <iidm:temporaryLimit name="3674d58e-946d-4901-8084-eb21afe1565a" acceptableDuration="20" value="14746.4"/>
                <iidm:temporaryLimit name="a1cfb7e6-ed0d-4369-b555-007826ba82fb" acceptableDuration="10" value="15746.4"/>
            </iidm:currentLimits2>
        </iidm:twoWindingsTransformer>
        <iidm:twoWindingsTransformer id="b94318f6-6d24-4f56-96b9-df2531ad6543" name="BE-TR2_2" r="0.2057" x="2.78472075" g="0.0" b="0.0" ratedU1="220.0" ratedU2="110.0" bus1="99b219f3-4593-428b-a4da-124a54630178" connectableBus1="99b219f3-4593-428b-a4da-124a54630178" voltageLevelId1="b10b171b-3bc5-4849-bb1f-61ed9ea1ec7c" bus2="5c74cb26-ce2f-40c6-951d-89091eb781b6" connectableBus2="5c74cb26-ce2f-40c6-951d-89091eb781b6" voltageLevelId2="8bbd7e74-ae20-4dce-8780-c20f8e18c2e0" p1="-96.74023945560474" q1="51.84100105898663" p2="96.92267563011383" q2="-49.37122079303702">
            <iidm:alias type="CGMES.TransformerEnd1">81a18364-0397-48d3-b850-22a0e34b410f</iidm:alias>
            <iidm:alias type="CGMES.Terminal1">4c19ace6-c825-4c5b-87d9-031e6e6a3379</iidm:alias>
            <iidm:alias type="CGMES.Terminal2">ab7ece75-d726-48c8-a924-b0a9325e6d51</iidm:alias>
            <iidm:alias type="CGMES.TransformerEnd2">664a19e1-1dc2-48d5-b265-c0630981e61c</iidm:alias>
            <iidm:alias type="CGMES.RatioTapChanger1">955d9cd0-4a10-4031-b008-60c0dc340a07</iidm:alias>
            <iidm:ratioTapChanger lowTapPosition="1" tapPosition="10" targetDeadband="0.5" loadTapChangingCapabilities="true" regulating="false" targetV="0.0">
                <iidm:terminalRef id="b94318f6-6d24-4f56-96b9-df2531ad6543" side="TWO"/>
                <iidm:step r="0.0" x="0.0" g="0.0" b="0.0" rho="1.1764705882352942"/>
                <iidm:step r="0.0" x="0.0" g="0.0" b="0.0" rho="1.1594202898550725"/>
                <iidm:step r="0.0" x="0.0" g="0.0" b="0.0" rho="1.1428571428571428"/>
                <iidm:step r="0.0" x="0.0" g="0.0" b="0.0" rho="1.1267605633802817"/>
                <iidm:step r="0.0" x="0.0" g="0.0" b="0.0" rho="1.1111111111111112"/>
                <iidm:step r="0.0" x="0.0" g="0.0" b="0.0" rho="1.095890410958904"/>
                <iidm:step r="0.0" x="0.0" g="0.0" b="0.0" rho="1.081081081081081"/>
                <iidm:step r="0.0" x="0.0" g="0.0" b="0.0" rho="1.0666666666666667"/>
                <iidm:step r="0.0" x="0.0" g="0.0" b="0.0" rho="1.0526315789473684"/>
                <iidm:step r="0.0" x="0.0" g="0.0" b="0.0" rho="1.0389610389610389"/>
                <iidm:step r="0.0" x="0.0" g="0.0" b="0.0" rho="1.0256410256410258"/>
                <iidm:step r="0.0" x="0.0" g="0.0" b="0.0" rho="1.0126582278481011"/>
                <iidm:step r="0.0" x="0.0" g="0.0" b="0.0" rho="1.0"/>
                <iidm:step r="0.0" x="0.0" g="0.0" b="0.0" rho="0.9876543209876544"/>
                <iidm:step r="0.0" x="0.0" g="0.0" b="0.0" rho="0.9756097560975611"/>
                <iidm:step r="0.0" x="0.0" g="0.0" b="0.0" rho="0.9638554216867469"/>
                <iidm:step r="0.0" x="0.0" g="0.0" b="0.0" rho="0.9523809523809523"/>
                <iidm:step r="0.0" x="0.0" g="0.0" b="0.0" rho="0.9411764705882353"/>
                <iidm:step r="0.0" x="0.0" g="0.0" b="0.0" rho="0.9302325581395349"/>
                <iidm:step r="0.0" x="0.0" g="0.0" b="0.0" rho="0.9195402298850576"/>
                <iidm:step r="0.0" x="0.0" g="0.0" b="0.0" rho="0.9090909090909091"/>
                <iidm:step r="0.0" x="0.0" g="0.0" b="0.0" rho="0.898876404494382"/>
                <iidm:step r="0.0" x="0.0" g="0.0" b="0.0" rho="0.8888888888888888"/>
                <iidm:step r="0.0" x="0.0" g="0.0" b="0.0" rho="0.8791208791208791"/>
                <iidm:step r="0.0" x="0.0" g="0.0" b="0.0" rho="0.8695652173913044"/>
            </iidm:ratioTapChanger>
            <iidm:currentLimits1 permanentLimit="1705.8">
                <iidm:temporaryLimit name="0d6f26df-9f86-4df0-b00c-bfb23870257f" acceptableDuration="20" value="1805.8"/>
                <iidm:temporaryLimit name="5b77485f-20a3-4a19-8d15-e4038c81663f" acceptableDuration="10" value="1905.8"/>
            </iidm:currentLimits1>
            <iidm:currentLimits2 permanentLimit="3411.6">
                <iidm:temporaryLimit name="7939fc42-08ef-4ce7-9912-97552a4db39a" acceptableDuration="20" value="3611.6"/>
                <iidm:temporaryLimit name="84d4dbeb-ef3b-43a1-9a7e-ce5713013498" acceptableDuration="10" value="3811.6"/>
            </iidm:currentLimits2>
        </iidm:twoWindingsTransformer>
        <iidm:twoWindingsTransformer id="a708c3bc-465d-4fe7-b6ef-6fa6408a62b0" name="BE-TR2_1" r="0.20476920750000005" x="1.097992115" g="0.0" b="0.0" ratedU1="400.0" ratedU2="110.0" bus1="e44141af-f1dc-44d3-bfa4-b674e5c953d7" connectableBus1="e44141af-f1dc-44d3-bfa4-b674e5c953d7" voltageLevelId1="469df5f7-058f-4451-a998-57a48e8a56fe" bus2="5c74cb26-ce2f-40c6-951d-89091eb781b6" connectableBus2="5c74cb26-ce2f-40c6-951d-89091eb781b6" voltageLevelId2="8bbd7e74-ae20-4dce-8780-c20f8e18c2e0" p1="208.79407550914996" q1="-233.84584789035424" p2="-207.23436888657773" q2="242.20914427756526">
            <iidm:alias type="CGMES.PhaseTapChanger1">6ebbef67-3061-4236-a6fd-6ccc4595f6c3</iidm:alias>
            <iidm:alias type="CGMES.Terminal1">c3774d3f-f48c-4954-a0cf-b4572eb714fd</iidm:alias>
            <iidm:alias type="CGMES.Terminal2">2cd21c77-b8b1-4896-95fb-240f45b9ac89</iidm:alias>
            <iidm:alias type="CGMES.TransformerEnd1">49ca3fd4-1b54-4c5b-83fd-4dbd0f9fec9d</iidm:alias>
            <iidm:alias type="CGMES.TransformerEnd2">1912224a-9e98-41aa-84cf-00875bce7264</iidm:alias>
            <iidm:phaseTapChanger lowTapPosition="1" tapPosition="10" targetDeadband="35.0" regulationMode="ACTIVE_POWER_CONTROL" regulationValue="-65.0" regulating="true">
                <iidm:terminalRef id="a708c3bc-465d-4fe7-b6ef-6fa6408a62b0" side="TWO"/>
                <iidm:step r="0.0" x="0.0" g="0.0" b="0.0" rho="0.9889363528682975" alpha="8.530765609948135"/>
                <iidm:step r="0.0" x="0.0" g="0.0" b="0.0" rho="0.9906788398452958" alpha="7.829076510059608"/>
                <iidm:step r="0.0" x="0.0" g="0.0" b="0.0" rho="0.9922778767136677" alpha="7.125016348901798"/>
                <iidm:step r="0.0" x="0.0" g="0.0" b="0.0" rho="0.9937313161588018" alpha="6.418786730238786"/>
                <iidm:step r="0.0" x="0.0" g="0.0" b="0.0" rho="0.9950371902099893" alpha="5.710593137499643"/>
                <iidm:step r="0.0" x="0.0" g="0.0" b="0.0" rho="0.996193717496113" alpha="5.000644597558434"/>
                <iidm:step r="0.0" x="0.0" g="0.0" b="0.0" rho="0.9971993098884564" alpha="4.289153328819019"/>
                <iidm:step r="0.0" x="0.0" g="0.0" b="0.0" rho="0.9980525784828885" alpha="3.576334374997351"/>
                <iidm:step r="0.0" x="0.0" g="0.0" b="0.0" rho="0.9987523388778446" alpha="2.862405226111748"/>
                <iidm:step r="0.0" x="0.0" g="0.0" b="0.0" rho="0.9992976157091807" alpha="2.1475854282985036"/>
                <iidm:step r="0.0" x="0.0" g="0.0" b="0.0" rho="0.9996876464081226" alpha="1.4320961841646465"/>
                <iidm:step r="0.0" x="0.0" g="0.0" b="0.0" rho="0.9999218841540815" alpha="0.7161599454704085"/>
                <iidm:step r="0.0" x="0.0" g="0.0" b="0.0" rho="1.0" alpha="-0.0"/>
                <iidm:step r="0.0" x="0.0" g="0.0" b="0.0" rho="0.9999218841540815" alpha="-0.7161599454704085"/>
                <iidm:step r="0.0" x="0.0" g="0.0" b="0.0" rho="0.9996876464081226" alpha="-1.4320961841646465"/>
                <iidm:step r="0.0" x="0.0" g="0.0" b="0.0" rho="0.9992976157091807" alpha="-2.1475854282985036"/>
                <iidm:step r="0.0" x="0.0" g="0.0" b="0.0" rho="0.9987523388778446" alpha="-2.862405226111748"/>
                <iidm:step r="0.0" x="0.0" g="0.0" b="0.0" rho="0.9980525784828885" alpha="-3.576334374997351"/>
                <iidm:step r="0.0" x="0.0" g="0.0" b="0.0" rho="0.9971993098884564" alpha="-4.289153328819019"/>
                <iidm:step r="0.0" x="0.0" g="0.0" b="0.0" rho="0.996193717496113" alpha="-5.000644597558434"/>
                <iidm:step r="0.0" x="0.0" g="0.0" b="0.0" rho="0.9950371902099893" alpha="-5.710593137499643"/>
                <iidm:step r="0.0" x="0.0" g="0.0" b="0.0" rho="0.9937313161588018" alpha="-6.418786730238786"/>
                <iidm:step r="0.0" x="0.0" g="0.0" b="0.0" rho="0.9922778767136677" alpha="-7.125016348901798"/>
                <iidm:step r="0.0" x="0.0" g="0.0" b="0.0" rho="0.9906788398452958" alpha="-7.829076510059608"/>
                <iidm:step r="0.0" x="0.0" g="0.0" b="0.0" rho="0.9889363528682975" alpha="-8.530765609948135"/>
            </iidm:phaseTapChanger>
            <iidm:currentLimits1 permanentLimit="938.2">
                <iidm:temporaryLimit name="aaa63bb1-fa34-41a3-bd92-0637bfce549c" acceptableDuration="20" value="958.2"/>
                <iidm:temporaryLimit name="acbd4688-6393-4b43-a9f4-27d8c3f8c309" acceptableDuration="10" value="998.2"/>
            </iidm:currentLimits1>
            <iidm:currentLimits2 permanentLimit="3411.6">
                <iidm:temporaryLimit name="da1cb116-0730-4a00-b795-8ab0b52ad89f" acceptableDuration="20" value="3611.6"/>
                <iidm:temporaryLimit name="4af98ccd-29f1-4039-86cd-c23fc2deb3bc" acceptableDuration="10" value="3811.6"/>
            </iidm:currentLimits2>
        </iidm:twoWindingsTransformer>
        <iidm:threeWindingsTransformer id="84ed55f4-61f5-4d9d-8755-bba7b877a246" name="BE-TR3_1" r1="0.898462" x1="17.204128" g1="0.0" b1="2.4375E-6" ratedU1="400.0" r2="1.070770247933884" x2="19.6664" g2="0.0" b2="0.0" ratedU2="220.0" r3="4.837006802721088" x3="21.760725623582765" g3="0.0" b3="0.0" ratedU3="21.0" ratedU0="400.0" bus1="e44141af-f1dc-44d3-bfa4-b674e5c953d7" connectableBus1="e44141af-f1dc-44d3-bfa4-b674e5c953d7" voltageLevelId1="469df5f7-058f-4451-a998-57a48e8a56fe" bus2="99b219f3-4593-428b-a4da-124a54630178" connectableBus2="99b219f3-4593-428b-a4da-124a54630178" voltageLevelId2="b10b171b-3bc5-4849-bb1f-61ed9ea1ec7c" bus3="f96d552a-618d-4d0c-a39a-2dea3c411dee" connectableBus3="f96d552a-618d-4d0c-a39a-2dea3c411dee" voltageLevelId3="929ba893-c9dc-44d7-b1fd-30834bd3ab85" p1="-39.28990741123284" q1="13.592059415560037" p2="-77.9980915902958" q2="-98.13307498930483" p3="118.00001039502183" q3="88.8643980501262">
            <iidm:alias type="CGMES.TransformerEnd2">e1f661c0-971d-4ce5-ad39-0ec427f288ab</iidm:alias>
            <iidm:alias type="CGMES.TransformerEnd1">5f68a129-d5d8-4b71-9743-9ca2572ba26b</iidm:alias>
            <iidm:alias type="CGMES.Terminal3">ca0f7e2e-3442-4ada-a704-91f319c0ebe3</iidm:alias>
            <iidm:alias type="CGMES.TransformerEnd3">2e21d1ef-2287-434c-a767-1ca807cf2478</iidm:alias>
            <iidm:alias type="CGMES.RatioTapChanger2">fe25f43a-7341-446e-a71a-8ab7119ba806</iidm:alias>
            <iidm:alias type="CGMES.Terminal1">76e9ca77-f805-40ea-8120-5a6d58416d34</iidm:alias>
            <iidm:alias type="CGMES.Terminal2">53fd6693-57e6-482e-8fbe-dcf3531a7ce0</iidm:alias>
            <iidm:property name="v" value="412.8513313454426"/>
            <iidm:property name="angle" value="-6.705829580764781"/>
            <iidm:ratioTapChanger2 lowTapPosition="1" tapPosition="17" targetDeadband="0.5" loadTapChangingCapabilities="true" regulating="false" targetV="0.0">
                <iidm:terminalRef id="84ed55f4-61f5-4d9d-8755-bba7b877a246" side="TWO"/>
                <iidm:step r="0.0" x="0.0" g="0.0" b="0.0" rho="1.1111111111111112"/>
                <iidm:step r="0.0" x="0.0" g="0.0" b="0.0" rho="1.103448275862069"/>
                <iidm:step r="0.0" x="0.0" g="0.0" b="0.0" rho="1.095890410958904"/>
                <iidm:step r="0.0" x="0.0" g="0.0" b="0.0" rho="1.08843537414966"/>
                <iidm:step r="0.0" x="0.0" g="0.0" b="0.0" rho="1.081081081081081"/>
                <iidm:step r="0.0" x="0.0" g="0.0" b="0.0" rho="1.0738255033557047"/>
                <iidm:step r="0.0" x="0.0" g="0.0" b="0.0" rho="1.0666666666666667"/>
                <iidm:step r="0.0" x="0.0" g="0.0" b="0.0" rho="1.0596026490066226"/>
                <iidm:step r="0.0" x="0.0" g="0.0" b="0.0" rho="1.0526315789473684"/>
                <iidm:step r="0.0" x="0.0" g="0.0" b="0.0" rho="1.0457516339869282"/>
                <iidm:step r="0.0" x="0.0" g="0.0" b="0.0" rho="1.0389610389610389"/>
                <iidm:step r="0.0" x="0.0" g="0.0" b="0.0" rho="1.032258064516129"/>
                <iidm:step r="0.0" x="0.0" g="0.0" b="0.0" rho="1.0256410256410258"/>
                <iidm:step r="0.0" x="0.0" g="0.0" b="0.0" rho="1.019108280254777"/>
                <iidm:step r="0.0" x="0.0" g="0.0" b="0.0" rho="1.0126582278481011"/>
                <iidm:step r="0.0" x="0.0" g="0.0" b="0.0" rho="1.0062893081761006"/>
                <iidm:step r="0.0" x="0.0" g="0.0" b="0.0" rho="1.0"/>
                <iidm:step r="0.0" x="0.0" g="0.0" b="0.0" rho="0.9937888198757763"/>
                <iidm:step r="0.0" x="0.0" g="0.0" b="0.0" rho="0.9876543209876544"/>
                <iidm:step r="0.0" x="0.0" g="0.0" b="0.0" rho="0.9815950920245399"/>
                <iidm:step r="0.0" x="0.0" g="0.0" b="0.0" rho="0.9756097560975611"/>
                <iidm:step r="0.0" x="0.0" g="0.0" b="0.0" rho="0.9696969696969697"/>
                <iidm:step r="0.0" x="0.0" g="0.0" b="0.0" rho="0.9638554216867469"/>
                <iidm:step r="0.0" x="0.0" g="0.0" b="0.0" rho="0.9580838323353293"/>
                <iidm:step r="0.0" x="0.0" g="0.0" b="0.0" rho="0.9523809523809523"/>
                <iidm:step r="0.0" x="0.0" g="0.0" b="0.0" rho="0.9467455621301776"/>
                <iidm:step r="0.0" x="0.0" g="0.0" b="0.0" rho="0.9411764705882353"/>
                <iidm:step r="0.0" x="0.0" g="0.0" b="0.0" rho="0.935672514619883"/>
                <iidm:step r="0.0" x="0.0" g="0.0" b="0.0" rho="0.9302325581395349"/>
                <iidm:step r="0.0" x="0.0" g="0.0" b="0.0" rho="0.9248554913294798"/>
                <iidm:step r="0.0" x="0.0" g="0.0" b="0.0" rho="0.9195402298850576"/>
                <iidm:step r="0.0" x="0.0" g="0.0" b="0.0" rho="0.9142857142857143"/>
                <iidm:step r="0.0" x="0.0" g="0.0" b="0.0" rho="0.9090909090909091"/>
            </iidm:ratioTapChanger2>
            <iidm:currentLimits1 permanentLimit="938.2">
                <iidm:temporaryLimit name="ddcb76e0-13ea-413f-9a8f-553d78782f76" acceptableDuration="20" value="968.2"/>
                <iidm:temporaryLimit name="3e9ed732-dd10-4f10-bc9d-d399e1e75a78" acceptableDuration="10" value="998.2"/>
            </iidm:currentLimits1>
            <iidm:currentLimits2 permanentLimit="1705.8">
                <iidm:temporaryLimit name="52d7ccc6-b4a1-48eb-9cfa-f5870b8b7fce" acceptableDuration="20" value="1805.8"/>
                <iidm:temporaryLimit name="11763596-6f4b-4cd5-a4a0-be649f368e86" acceptableDuration="10" value="1905.8"/>
            </iidm:currentLimits2>
            <iidm:currentLimits3 permanentLimit="17870.4">
                <iidm:temporaryLimit name="50448009-0fad-4656-bce4-438fe76e18cf" acceptableDuration="20" value="18870.4"/>
                <iidm:temporaryLimit name="df2d3155-4436-4542-8d3b-64241c7433be" acceptableDuration="10" value="19870.4"/>
            </iidm:currentLimits3>
        </iidm:threeWindingsTransformer>
    </iidm:substation>
    <iidm:substation id="c49942d6-8b01-4b01-b5e8-f1180f84906c" name="PP_Amsterdam" country="NL" geographicalTags="TENNET TSO B.V.">
        <iidm:property name="CGMES.regionName" value="NL"/>
        <iidm:property name="CGMES.subRegionId" value="c1d5bfe48f8011e08e4d00247eb1f55e"/>
        <iidm:property name="CGMES.regionId" value="c1d5bfe28f8011e08e4d00247eb1f55e"/>
        <iidm:voltageLevel id="2a37dc57-2faf-464a-8175-bc415f9a635f" name="15.8" nominalV="15.75" lowVoltageLimit="14.175" highVoltageLimit="17.325" topologyKind="BUS_BREAKER">
            <iidm:busBreakerTopology>
                <iidm:bus id="6bdc33de-d027-49b7-b98f-3b3d87716615" name="N1230822413" v="16.01775" angle="-1.702102224389427"/>
            </iidm:busBreakerTopology>
            <iidm:generator id="2844585c-0d35-488d-a449-685bcd57afbf" name="NL-G2" energySource="OTHER" minP="130.0" maxP="250.0" ratedS="250.0" voltageRegulatorOn="true" targetP="140.0" targetV="16.01775" targetQ="77.743" bus="6bdc33de-d027-49b7-b98f-3b3d87716615" connectableBus="6bdc33de-d027-49b7-b98f-3b3d87716615" p="-140.0" q="28.866599894251355">
                <iidm:alias type="CGMES.Terminal1">ae4b7cbe-349a-41c8-ace2-25ec26f14a64</iidm:alias>
                <iidm:property name="CGMES.normalPF" value="0.0"/>
                <iidm:property name="CGMES.GeneratingUnit" value="ca80ee09-3bed-4884-bc28-6dc89d067289"/>
                <iidm:property name="CGMES.RegulatingControl" value="1b3c88f9-c2ca-4250-bd37-ae0efa2fb022"/>
                <iidm:minMaxReactiveLimits minQ="0.0" maxQ="200.0"/>
            </iidm:generator>
            <iidm:generator id="1dc9afba-23b5-41a0-8540-b479ed8baf4b" name="NL-G3" energySource="OTHER" minP="130.0" maxP="250.0" ratedS="250.0" voltageRegulatorOn="true" targetP="150.0" targetV="16.01775" targetQ="83.296" bus="6bdc33de-d027-49b7-b98f-3b3d87716615" connectableBus="6bdc33de-d027-49b7-b98f-3b3d87716615" p="-150.0" q="28.866599894251355">
                <iidm:alias type="CGMES.Terminal1">f04ecab5-1a12-4cc0-ba56-b157ebf11a42</iidm:alias>
                <iidm:property name="CGMES.normalPF" value="0.0"/>
                <iidm:property name="CGMES.GeneratingUnit" value="b850063d-eae7-4675-bc98-4642d3076783"/>
                <iidm:property name="CGMES.RegulatingControl" value="53e7a6c7-759b-4da2-898a-1c061d788670"/>
                <iidm:minMaxReactiveLimits minQ="0.0" maxQ="200.0"/>
            </iidm:generator>
        </iidm:voltageLevel>
        <iidm:voltageLevel id="8d8a82ba-b5b0-4e94-861a-192af055f2b8" name="15.8" nominalV="15.75" lowVoltageLimit="14.175" highVoltageLimit="17.325" topologyKind="BUS_BREAKER">
            <iidm:busBreakerTopology>
                <iidm:bus id="97d7d14a-7294-458f-a8d7-024700a08717" name="NL_TR_BUS2" v="16.0335" angle="0.0"/>
            </iidm:busBreakerTopology>
            <iidm:generator id="9c3b8f97-7972-477d-9dc8-87365cc0ad0e" name="NL-G1" energySource="OTHER" minP="300.0" maxP="1000.0" ratedS="1100.0" voltageRegulatorOn="true" targetP="600.492701" targetV="16.0335" targetQ="386.922556" bus="97d7d14a-7294-458f-a8d7-024700a08717" connectableBus="97d7d14a-7294-458f-a8d7-024700a08717" p="-600.492701" q="-244.77337763773096">
                <iidm:alias type="CGMES.Terminal1">faab7959-f9bf-421b-bc3f-d364e0c1388b</iidm:alias>
                <iidm:property name="CGMES.normalPF" value="1.0"/>
                <iidm:property name="CGMES.GeneratingUnit" value="049438a6-780a-44fe-a788-ebe385d98e25"/>
                <iidm:property name="CGMES.RegulatingControl" value="04f338d3-3c0d-433f-a77b-e36dd256f0f0"/>
                <iidm:minMaxReactiveLimits minQ="0.0" maxQ="600.0"/>
            </iidm:generator>
        </iidm:voltageLevel>
        <iidm:voltageLevel id="c1d5bfea8f8011e08e4d00247eb1f55e" name="220.0" nominalV="220.0" lowVoltageLimit="198.0" highVoltageLimit="242.0" topologyKind="BUS_BREAKER">
            <iidm:busBreakerTopology>
                <iidm:bus id="795a117d-7caf-4fc2-a8d9-dc8f4cf2344a" name="NL_Busbar__4" v="225.14639219804457" angle="-3.480623144241681"/>
                <iidm:bus id="afddd60d-f7e6-419a-a5c2-be28d29beaf9" name="NL-Busbar_2" v="225.14639219804457" angle="-3.480623144241681"/>
                <iidm:switch id="5f5d40ae-d52d-4631-9285-b3ceefff784c" name="B1" kind="BREAKER" retained="true" open="false" bus1="795a117d-7caf-4fc2-a8d9-dc8f4cf2344a" bus2="afddd60d-f7e6-419a-a5c2-be28d29beaf9">
                    <iidm:alias type="CGMES.Terminal2">5f40c3f7-9540-4e1b-aa97-6553d5524877</iidm:alias>
                    <iidm:alias type="CGMES.Terminal1">8121d4c3-9cb2-47db-b40a-99678602bb2a</iidm:alias>
                </iidm:switch>
            </iidm:busBreakerTopology>
            <iidm:load id="b1e03a8f-6a11-4454-af58-4a4a680e857f" name="NL-Load_3" loadType="UNDEFINED" p0="486.0" q0="230.0" bus="afddd60d-f7e6-419a-a5c2-be28d29beaf9" connectableBus="afddd60d-f7e6-419a-a5c2-be28d29beaf9" p="486.00000000000006" q="230.0">
                <iidm:alias type="CGMES.Terminal1">fab54e9c-b12e-4e47-a9f2-fec4ef96c0c0</iidm:alias>
            </iidm:load>
        </iidm:voltageLevel>
        <iidm:voltageLevel id="c1d5bfde8f8011e08e4d00247eb1f55e" name="400.0" nominalV="400.0" lowVoltageLimit="360.0" highVoltageLimit="440.0" topologyKind="BUS_BREAKER">
            <iidm:busBreakerTopology>
                <iidm:bus id="81b0e447-181e-4aec-8921-f1dd7813bebc" name="N1230992195" v="408.9253274516343" angle="-6.4832973977365"/>
            </iidm:busBreakerTopology>
            <iidm:load id="69add5b4-70bd-4360-8a93-286256c0d38b" name="NL-Load_1" loadType="UNDEFINED" p0="90.0" q0="280.0" bus="81b0e447-181e-4aec-8921-f1dd7813bebc" connectableBus="81b0e447-181e-4aec-8921-f1dd7813bebc" p="90.0" q="280.0">
                <iidm:alias type="CGMES.Terminal1">f461fd2d-1e41-4a3e-8213-7cc33c77a089</iidm:alias>
            </iidm:load>
            <iidm:load id="25ab1b5b-6803-47e2-805a-ab7b2072e034" name="NL-Load_2" loadType="UNDEFINED" p0="10.0" q0="10.0" bus="81b0e447-181e-4aec-8921-f1dd7813bebc" connectableBus="81b0e447-181e-4aec-8921-f1dd7813bebc" p="10.0" q="10.0">
                <iidm:alias type="CGMES.Terminal1">6dad1a97-6874-4206-a5a5-837e495325f8</iidm:alias>
            </iidm:load>
            <iidm:shunt id="fbfed7e3-3dec-4829-a286-029e73535685" name="NL-S1" sectionCount="1" voltageRegulatorOn="false" targetV="400.0" targetDeadband="0.5" bus="81b0e447-181e-4aec-8921-f1dd7813bebc" connectableBus="81b0e447-181e-4aec-8921-f1dd7813bebc" p="0.0" q="-52.33983603403645">
                <iidm:alias type="CGMES.Terminal1">a015f692-3fc5-4ec3-8d1d-977c7b499e7c</iidm:alias>
                <iidm:property name="CGMES.RegulatingControl" value="613dfeb3-0161-4cec-aaa9-ccddd885771b"/>
                <iidm:shuntLinearModel bPerSection="3.13E-4" gPerSection="0.0" maximumSectionCount="1"/>
            </iidm:shunt>
        </iidm:voltageLevel>
        <iidm:twoWindingsTransformer id="2184f365-8cd5-4b5d-8a28-9d68603bb6a4" name="NL_TR2_2" r="3.543757321797521E-4" x="0.0275602203990186" g="0.003547489523809523" b="-0.027710349931972786" ratedU1="220.0" ratedU2="15.75" bus1="795a117d-7caf-4fc2-a8d9-dc8f4cf2344a" connectableBus1="795a117d-7caf-4fc2-a8d9-dc8f4cf2344a" voltageLevelId1="c1d5bfea8f8011e08e4d00247eb1f55e" bus2="6bdc33de-d027-49b7-b98f-3b3d87716615" connectableBus2="6bdc33de-d027-49b7-b98f-3b3d87716615" voltageLevelId2="2a37dc57-2faf-464a-8175-bc415f9a635f" p1="-288.95758559280245" q1="74.32440546263584" p2="290.0000012085965" q2="-57.73319978850271">
            <iidm:alias type="CGMES.Terminal1">1128e664-0653-448a-9068-e37f1a097c05</iidm:alias>
            <iidm:alias type="CGMES.Terminal2">da232169-1c36-495a-8af6-a0d7d2b39f52</iidm:alias>
            <iidm:alias type="CGMES.RatioTapChanger1">c1d5c1588f8011e08e4d00247eb1f55e</iidm:alias>
            <iidm:alias type="CGMES.TransformerEnd1">c1d5c1518f8011e08e4d00247eb1f55e</iidm:alias>
            <iidm:alias type="CGMES.TransformerEnd2">c1d5c15a8f8011e08e4d00247eb1f55e</iidm:alias>
            <iidm:ratioTapChanger lowTapPosition="0" tapPosition="17" targetDeadband="0.5" loadTapChangingCapabilities="true" regulating="false" targetV="0.0">
                <iidm:terminalRef id="2184f365-8cd5-4b5d-8a28-9d68603bb6a4" side="TWO"/>
                <iidm:step r="0.0" x="0.0" g="0.0" b="0.0" rho="1.1188811188811187"/>
                <iidm:step r="0.0" x="0.0" g="0.0" b="0.0" rho="1.1111111111111112"/>
                <iidm:step r="0.0" x="0.0" g="0.0" b="0.0" rho="1.103448275862069"/>
                <iidm:step r="0.0" x="0.0" g="0.0" b="0.0" rho="1.095890410958904"/>
                <iidm:step r="0.0" x="0.0" g="0.0" b="0.0" rho="1.08843537414966"/>
                <iidm:step r="0.0" x="0.0" g="0.0" b="0.0" rho="1.081081081081081"/>
                <iidm:step r="0.0" x="0.0" g="0.0" b="0.0" rho="1.0738255033557047"/>
                <iidm:step r="0.0" x="0.0" g="0.0" b="0.0" rho="1.0666666666666667"/>
                <iidm:step r="0.0" x="0.0" g="0.0" b="0.0" rho="1.0596026490066226"/>
                <iidm:step r="0.0" x="0.0" g="0.0" b="0.0" rho="1.0526315789473684"/>
                <iidm:step r="0.0" x="0.0" g="0.0" b="0.0" rho="1.0457516339869282"/>
                <iidm:step r="0.0" x="0.0" g="0.0" b="0.0" rho="1.0389610389610389"/>
                <iidm:step r="0.0" x="0.0" g="0.0" b="0.0" rho="1.032258064516129"/>
                <iidm:step r="0.0" x="0.0" g="0.0" b="0.0" rho="1.0256410256410258"/>
                <iidm:step r="0.0" x="0.0" g="0.0" b="0.0" rho="1.019108280254777"/>
                <iidm:step r="0.0" x="0.0" g="0.0" b="0.0" rho="1.0126582278481011"/>
                <iidm:step r="0.0" x="0.0" g="0.0" b="0.0" rho="1.0062893081761006"/>
                <iidm:step r="0.0" x="0.0" g="0.0" b="0.0" rho="1.0"/>
                <iidm:step r="0.0" x="0.0" g="0.0" b="0.0" rho="0.9937888198757763"/>
                <iidm:step r="0.0" x="0.0" g="0.0" b="0.0" rho="0.9876543209876544"/>
                <iidm:step r="0.0" x="0.0" g="0.0" b="0.0" rho="0.9815950920245399"/>
                <iidm:step r="0.0" x="0.0" g="0.0" b="0.0" rho="0.9756097560975611"/>
                <iidm:step r="0.0" x="0.0" g="0.0" b="0.0" rho="0.9696969696969697"/>
                <iidm:step r="0.0" x="0.0" g="0.0" b="0.0" rho="0.9638554216867469"/>
                <iidm:step r="0.0" x="0.0" g="0.0" b="0.0" rho="0.9580838323353293"/>
                <iidm:step r="0.0" x="0.0" g="0.0" b="0.0" rho="0.9523809523809523"/>
                <iidm:step r="0.0" x="0.0" g="0.0" b="0.0" rho="0.9467455621301776"/>
                <iidm:step r="0.0" x="0.0" g="0.0" b="0.0" rho="0.9411764705882353"/>
                <iidm:step r="0.0" x="0.0" g="0.0" b="0.0" rho="0.935672514619883"/>
                <iidm:step r="0.0" x="0.0" g="0.0" b="0.0" rho="0.9302325581395349"/>
                <iidm:step r="0.0" x="0.0" g="0.0" b="0.0" rho="0.9248554913294798"/>
                <iidm:step r="0.0" x="0.0" g="0.0" b="0.0" rho="0.9195402298850576"/>
                <iidm:step r="0.0" x="0.0" g="0.0" b="0.0" rho="0.9142857142857143"/>
                <iidm:step r="0.0" x="0.0" g="0.0" b="0.0" rho="0.9090909090909091"/>
            </iidm:ratioTapChanger>
            <iidm:currentLimits1 permanentLimit="3306.6">
                <iidm:temporaryLimit name="e2153eed-fb1f-44e2-b116-d045c5e50e3b" acceptableDuration="20" value="3406.6"/>
                <iidm:temporaryLimit name="b4f373a0-1d09-4f4f-9f29-f72ff6b4f62f" acceptableDuration="10" value="3506.6"/>
            </iidm:currentLimits1>
            <iidm:currentLimits2 permanentLimit="46188.0">
                <iidm:temporaryLimit name="2f71df7b-6118-4973-acea-7f65a563a979" acceptableDuration="20" value="47188.0"/>
                <iidm:temporaryLimit name="176ae6ba-d38c-4f7c-8a60-038dc4980a39" acceptableDuration="10" value="48188.0"/>
            </iidm:currentLimits2>
        </iidm:twoWindingsTransformer>
        <iidm:twoWindingsTransformer id="80016742-31b3-432a-b00a-300667a1e572" name="NL_TR2_3" r="3.3468961518595046E-4" x="0.027560466411415293" g="0.003547489523809523" b="-0.027710349931972786" ratedU1="220.0" ratedU2="15.75" bus1="afddd60d-f7e6-419a-a5c2-be28d29beaf9" connectableBus1="afddd60d-f7e6-419a-a5c2-be28d29beaf9" voltageLevelId1="c1d5bfea8f8011e08e4d00247eb1f55e" bus2="97d7d14a-7294-458f-a8d7-024700a08717" connectableBus2="97d7d14a-7294-458f-a8d7-024700a08717" voltageLevelId2="8d8a82ba-b5b0-4e94-861a-192af055f2b8" p1="-553.6634420895911" q1="-198.5564915133742" p2="555.0091242368197" q2="244.77337763773096">
            <iidm:alias type="CGMES.TransformerEnd1">c1d5c15e8f8011e08e4d00247eb1f55e</iidm:alias>
            <iidm:alias type="CGMES.Terminal2">4f1c405f-07c9-4fb0-b64e-551896a29aa8</iidm:alias>
            <iidm:alias type="CGMES.Terminal1">bd61b1f9-474d-424e-9709-42f75337c477</iidm:alias>
            <iidm:alias type="CGMES.RatioTapChanger1">c1d5c1658f8011e08e4d00247eb1f55e</iidm:alias>
            <iidm:alias type="CGMES.TransformerEnd2">c1d5c1678f8011e08e4d00247eb1f55e</iidm:alias>
            <iidm:ratioTapChanger lowTapPosition="-15" tapPosition="5" targetDeadband="0.5" loadTapChangingCapabilities="true" regulating="false" targetV="0.0">
                <iidm:terminalRef id="80016742-31b3-432a-b00a-300667a1e572" side="TWO"/>
                <iidm:step r="0.0" x="0.0" g="0.0" b="0.0" rho="1.103448275862069"/>
                <iidm:step r="0.0" x="0.0" g="0.0" b="0.0" rho="1.095890410958904"/>
                <iidm:step r="0.0" x="0.0" g="0.0" b="0.0" rho="1.08843537414966"/>
                <iidm:step r="0.0" x="0.0" g="0.0" b="0.0" rho="1.081081081081081"/>
                <iidm:step r="0.0" x="0.0" g="0.0" b="0.0" rho="1.0738255033557047"/>
                <iidm:step r="0.0" x="0.0" g="0.0" b="0.0" rho="1.0666666666666667"/>
                <iidm:step r="0.0" x="0.0" g="0.0" b="0.0" rho="1.0596026490066226"/>
                <iidm:step r="0.0" x="0.0" g="0.0" b="0.0" rho="1.0526315789473684"/>
                <iidm:step r="0.0" x="0.0" g="0.0" b="0.0" rho="1.0457516339869282"/>
                <iidm:step r="0.0" x="0.0" g="0.0" b="0.0" rho="1.0389610389610389"/>
                <iidm:step r="0.0" x="0.0" g="0.0" b="0.0" rho="1.032258064516129"/>
                <iidm:step r="0.0" x="0.0" g="0.0" b="0.0" rho="1.0256410256410258"/>
                <iidm:step r="0.0" x="0.0" g="0.0" b="0.0" rho="1.019108280254777"/>
                <iidm:step r="0.0" x="0.0" g="0.0" b="0.0" rho="1.0126582278481011"/>
                <iidm:step r="0.0" x="0.0" g="0.0" b="0.0" rho="1.0062893081761006"/>
                <iidm:step r="0.0" x="0.0" g="0.0" b="0.0" rho="1.0"/>
                <iidm:step r="0.0" x="0.0" g="0.0" b="0.0" rho="0.9937888198757763"/>
                <iidm:step r="0.0" x="0.0" g="0.0" b="0.0" rho="0.9876543209876544"/>
                <iidm:step r="0.0" x="0.0" g="0.0" b="0.0" rho="0.9815950920245399"/>
                <iidm:step r="0.0" x="0.0" g="0.0" b="0.0" rho="0.9756097560975611"/>
                <iidm:step r="0.0" x="0.0" g="0.0" b="0.0" rho="0.9696969696969697"/>
                <iidm:step r="0.0" x="0.0" g="0.0" b="0.0" rho="0.9638554216867469"/>
                <iidm:step r="0.0" x="0.0" g="0.0" b="0.0" rho="0.9580838323353293"/>
                <iidm:step r="0.0" x="0.0" g="0.0" b="0.0" rho="0.9523809523809523"/>
                <iidm:step r="0.0" x="0.0" g="0.0" b="0.0" rho="0.9467455621301776"/>
                <iidm:step r="0.0" x="0.0" g="0.0" b="0.0" rho="0.9411764705882353"/>
                <iidm:step r="0.0" x="0.0" g="0.0" b="0.0" rho="0.935672514619883"/>
                <iidm:step r="0.0" x="0.0" g="0.0" b="0.0" rho="0.9302325581395349"/>
                <iidm:step r="0.0" x="0.0" g="0.0" b="0.0" rho="0.9248554913294798"/>
                <iidm:step r="0.0" x="0.0" g="0.0" b="0.0" rho="0.9195402298850576"/>
                <iidm:step r="0.0" x="0.0" g="0.0" b="0.0" rho="0.9142857142857143"/>
            </iidm:ratioTapChanger>
            <iidm:currentLimits1 permanentLimit="3306.6">
                <iidm:temporaryLimit name="e2afb3a0-94ea-4f8f-b717-7b91c603d3dc" acceptableDuration="20" value="3506.6"/>
                <iidm:temporaryLimit name="d4bc2ee3-43b8-46fb-9337-d82590af1c8b" acceptableDuration="10" value="3706.6"/>
            </iidm:currentLimits1>
            <iidm:currentLimits2 permanentLimit="46188.0">
                <iidm:temporaryLimit name="716e45d4-4092-4a1b-ba5f-c78e1da4f363" acceptableDuration="20" value="47188.0"/>
                <iidm:temporaryLimit name="23b11495-8c2c-47cc-a561-e215196afa2b" acceptableDuration="10" value="49188.0"/>
            </iidm:currentLimits2>
        </iidm:twoWindingsTransformer>
        <iidm:twoWindingsTransformer id="e8a7eaec-51d6-4571-b3d9-c36d52073c33" name="NL-TR2_1" r="0.4083750000000001" x="8.460149390000002" g="1.8595041322314046E-6" b="-1.4692561983471074E-5" ratedU1="400.0" ratedU2="220.0" bus1="81b0e447-181e-4aec-8921-f1dd7813bebc" connectableBus1="81b0e447-181e-4aec-8921-f1dd7813bebc" voltageLevelId1="c1d5bfde8f8011e08e4d00247eb1f55e" bus2="afddd60d-f7e6-419a-a5c2-be28d29beaf9" connectableBus2="afddd60d-f7e6-419a-a5c2-be28d29beaf9" voltageLevelId2="c1d5bfea8f8011e08e4d00247eb1f55e" p1="-312.93985548285804" q1="116.61544574487057" p2="313.9079066873938" q2="-97.80563817461886">
            <iidm:alias type="CGMES.TransformerEnd2">c1d5c14d8f8011e08e4d00247eb1f55e</iidm:alias>
            <iidm:alias type="CGMES.TransformerEnd1">c1d5c1448f8011e08e4d00247eb1f55e</iidm:alias>
            <iidm:alias type="CGMES.RatioTapChanger1">c1d5c14b8f8011e08e4d00247eb1f55e</iidm:alias>
            <iidm:alias type="CGMES.Terminal2">baa7aef1-afcd-4981-97c0-ccec7b5ad4e0</iidm:alias>
            <iidm:alias type="CGMES.Terminal1">e3e0c496-5837-4f0f-a596-cc421940f73f</iidm:alias>
            <iidm:ratioTapChanger lowTapPosition="-20" tapPosition="-2" targetDeadband="0.5" loadTapChangingCapabilities="true" regulating="false" targetV="0.0">
                <iidm:terminalRef id="e8a7eaec-51d6-4571-b3d9-c36d52073c33" side="ONE"/>
                <iidm:step r="0.0" x="0.0" g="0.0" b="0.0" rho="1.1904761904761905"/>
                <iidm:step r="0.0" x="0.0" g="0.0" b="0.0" rho="1.179245283018868"/>
                <iidm:step r="0.0" x="0.0" g="0.0" b="0.0" rho="1.1682242990654206"/>
                <iidm:step r="0.0" x="0.0" g="0.0" b="0.0" rho="1.1574074074074074"/>
                <iidm:step r="0.0" x="0.0" g="0.0" b="0.0" rho="1.146788990825688"/>
                <iidm:step r="0.0" x="0.0" g="0.0" b="0.0" rho="1.1363636363636365"/>
                <iidm:step r="0.0" x="0.0" g="0.0" b="0.0" rho="1.1261261261261262"/>
                <iidm:step r="0.0" x="0.0" g="0.0" b="0.0" rho="1.1160714285714286"/>
                <iidm:step r="0.0" x="0.0" g="0.0" b="0.0" rho="1.1061946902654867"/>
                <iidm:step r="0.0" x="0.0" g="0.0" b="0.0" rho="1.0964912280701753"/>
                <iidm:step r="0.0" x="0.0" g="0.0" b="0.0" rho="1.0869565217391304"/>
                <iidm:step r="0.0" x="0.0" g="0.0" b="0.0" rho="1.0775862068965518"/>
                <iidm:step r="0.0" x="0.0" g="0.0" b="0.0" rho="1.0683760683760684"/>
                <iidm:step r="0.0" x="0.0" g="0.0" b="0.0" rho="1.0593220338983051"/>
                <iidm:step r="0.0" x="0.0" g="0.0" b="0.0" rho="1.050420168067227"/>
                <iidm:step r="0.0" x="0.0" g="0.0" b="0.0" rho="1.0416666666666667"/>
                <iidm:step r="0.0" x="0.0" g="0.0" b="0.0" rho="1.0330578512396695"/>
                <iidm:step r="0.0" x="0.0" g="0.0" b="0.0" rho="1.0245901639344261"/>
                <iidm:step r="0.0" x="0.0" g="0.0" b="0.0" rho="1.016260162601626"/>
                <iidm:step r="0.0" x="0.0" g="0.0" b="0.0" rho="1.0080645161290323"/>
                <iidm:step r="0.0" x="0.0" g="0.0" b="0.0" rho="1.0"/>
                <iidm:step r="0.0" x="0.0" g="0.0" b="0.0" rho="0.9920634920634921"/>
                <iidm:step r="0.0" x="0.0" g="0.0" b="0.0" rho="0.984251968503937"/>
                <iidm:step r="0.0" x="0.0" g="0.0" b="0.0" rho="0.9765625"/>
                <iidm:step r="0.0" x="0.0" g="0.0" b="0.0" rho="0.9689922480620154"/>
                <iidm:step r="0.0" x="0.0" g="0.0" b="0.0" rho="0.9615384615384615"/>
                <iidm:step r="0.0" x="0.0" g="0.0" b="0.0" rho="0.9541984732824427"/>
                <iidm:step r="0.0" x="0.0" g="0.0" b="0.0" rho="0.9469696969696969"/>
                <iidm:step r="0.0" x="0.0" g="0.0" b="0.0" rho="0.9398496240601504"/>
                <iidm:step r="0.0" x="0.0" g="0.0" b="0.0" rho="0.9328358208955223"/>
                <iidm:step r="0.0" x="0.0" g="0.0" b="0.0" rho="0.9259259259259258"/>
                <iidm:step r="0.0" x="0.0" g="0.0" b="0.0" rho="0.9191176470588235"/>
                <iidm:step r="0.0" x="0.0" g="0.0" b="0.0" rho="0.9124087591240875"/>
                <iidm:step r="0.0" x="0.0" g="0.0" b="0.0" rho="0.9057971014492753"/>
                <iidm:step r="0.0" x="0.0" g="0.0" b="0.0" rho="0.8992805755395683"/>
                <iidm:step r="0.0" x="0.0" g="0.0" b="0.0" rho="0.8928571428571428"/>
                <iidm:step r="0.0" x="0.0" g="0.0" b="0.0" rho="0.8865248226950354"/>
                <iidm:step r="0.0" x="0.0" g="0.0" b="0.0" rho="0.880281690140845"/>
                <iidm:step r="0.0" x="0.0" g="0.0" b="0.0" rho="0.8741258741258741"/>
                <iidm:step r="0.0" x="0.0" g="0.0" b="0.0" rho="0.8680555555555556"/>
                <iidm:step r="0.0" x="0.0" g="0.0" b="0.0" rho="0.8620689655172414"/>
            </iidm:ratioTapChanger>
            <iidm:currentLimits1 permanentLimit="461.9">
                <iidm:temporaryLimit name="5e7f87db-9758-4098-b19e-4f365915721f" acceptableDuration="20" value="481.9"/>
                <iidm:temporaryLimit name="553477f0-ed39-499b-a07d-3c602bd8a13d" acceptableDuration="10" value="491.9"/>
            </iidm:currentLimits1>
            <iidm:currentLimits2 permanentLimit="839.8">
                <iidm:temporaryLimit name="bd6482bb-5e21-46df-a3c3-0e4a64d49f89" acceptableDuration="20" value="849.8"/>
                <iidm:temporaryLimit name="8122651e-22ba-4320-9032-c59969020565" acceptableDuration="10" value="859.8"/>
            </iidm:currentLimits2>
        </iidm:twoWindingsTransformer>
    </iidm:substation>
    <iidm:line id="b58bf21a-096a-4dae-9a01-3f03b60c24c7" name="BE-Line_2" r="1.935" x="34.2" g1="3.375E-5" b1="2.120575E-5" g2="3.375E-5" b2="2.120575E-5" bus1="99b219f3-4593-428b-a4da-124a54630178" connectableBus1="99b219f3-4593-428b-a4da-124a54630178" voltageLevelId1="b10b171b-3bc5-4849-bb1f-61ed9ea1ec7c" bus2="f70f6bad-eb8d-4b8f-8431-4ab93581514e" connectableBus2="f70f6bad-eb8d-4b8f-8431-4ab93581514e" voltageLevelId2="d0486169-2205-40b2-895e-b672ecb9e5fc" p1="-18.534726364206584" q1="-2.619476316752791" p2="21.954434986184964" q2="0.7605771610720901">
        <iidm:alias type="CGMES.Terminal1">699545b9-82b9-4331-bc80-538d73b4ba56</iidm:alias>
        <iidm:alias type="CGMES.Terminal2">77f04391-aa23-49b6-b3e9-6089130bb5d5</iidm:alias>
        <iidm:currentLimits1 permanentLimit="1443.0">
            <iidm:temporaryLimit name="1594f66e-86bd-45da-aa04-3c2bd8e07d76" acceptableDuration="20" value="1574.0"/>
            <iidm:temporaryLimit name="6f35cf24-2d5e-4b9a-ac65-943610878a4b" acceptableDuration="10" value="1705.0"/>
        </iidm:currentLimits1>
        <iidm:currentLimits2 permanentLimit="1443.0">
            <iidm:temporaryLimit name="43d42f99-7c35-4907-a6ea-372b41eb8f77" acceptableDuration="20" value="1574.0"/>
            <iidm:temporaryLimit name="3ab4897f-cf5e-418b-8e1c-94f9cde91501" acceptableDuration="10" value="1705.0"/>
        </iidm:currentLimits2>
    </iidm:line>
    <iidm:line id="ffbabc27-1ccd-4fdc-b037-e341706c8d29" name="BE-Line_6" r="5.203" x="71.0" g1="6.0E-5" b1="1.000595E-5" g2="6.0E-5" b2="1.000595E-5" bus1="99b219f3-4593-428b-a4da-124a54630178" connectableBus1="99b219f3-4593-428b-a4da-124a54630178" voltageLevelId1="b10b171b-3bc5-4849-bb1f-61ed9ea1ec7c" bus2="f70f6bad-eb8d-4b8f-8431-4ab93581514e" connectableBus2="f70f6bad-eb8d-4b8f-8431-4ab93581514e" voltageLevelId2="d0486169-2205-40b2-895e-b672ecb9e5fc" p1="-6.72693401506999" q1="-1.0884449663237856" p2="12.788126472084867" q2="0.2137843696820141">
        <iidm:alias type="CGMES.Terminal1">05a17350-55f5-4a00-9a50-8c0048a25495</iidm:alias>
        <iidm:alias type="CGMES.Terminal2">a4d42d33-ae54-4fe9-ad59-f30da0dfb809</iidm:alias>
        <iidm:currentLimits1 permanentLimit="1180.0">
            <iidm:temporaryLimit name="0f8bff64-4cfe-4c94-9471-da94b2efcc4f" acceptableDuration="20" value="1312.0"/>
            <iidm:temporaryLimit name="61870312-e0be-4dd7-8941-22c108b61c30" acceptableDuration="10" value="1443.0"/>
        </iidm:currentLimits1>
        <iidm:currentLimits2 permanentLimit="1180.0">
            <iidm:temporaryLimit name="a634eecf-b900-4808-8b74-d91e36c383a0" acceptableDuration="20" value="1312.0"/>
            <iidm:temporaryLimit name="5a4a910c-f57f-456b-b9ca-670ab3676adb" acceptableDuration="10" value="1443.0"/>
        </iidm:currentLimits2>
    </iidm:line>
    <iidm:tieLine id="17086487-56ba-4979-b8de-064025a6b4da + 8fdc7abd-3746-481a-a65e-3df56acd8b13" name="BE-Line_1 + NL-Line_4" ucteXnodeCode="TN_Border_ST23" bus1="f70f6bad-eb8d-4b8f-8431-4ab93581514e" connectableBus1="f70f6bad-eb8d-4b8f-8431-4ab93581514e" voltageLevelId1="d0486169-2205-40b2-895e-b672ecb9e5fc" bus2="795a117d-7caf-4fc2-a8d9-dc8f4cf2344a" connectableBus2="795a117d-7caf-4fc2-a8d9-dc8f4cf2344a" voltageLevelId2="c1d5bfea8f8011e08e4d00247eb1f55e" p1="-18.53253492541845" q1="-1.5802294615581505" p2="21.35832164027057" q2="-6.1938796753425756" id_1="17086487-56ba-4979-b8de-064025a6b4da" name_1="BE-Line_1" r_1="2.2" x_1="68.2" g1_1="0.0" b1_1="0.0" g2_1="3.08E-5" b2_1="8.2938E-5" id_2="8fdc7abd-3746-481a-a65e-3df56acd8b13" name_2="NL-Line_4" r_2="2.2" x_2="66.0" g1_2="0.0" b1_2="0.0" g2_2="2.42E-5" b2_2="8.98495E-5">
        <iidm:alias type="CGMES.Terminal1">70d962fb-a492-4c36-8cad-b5c584df53bd</iidm:alias>
        <iidm:alias type="CGMES.Terminal_Boundary_1">1ef0715a-d5a9-477b-b6e7-b635529ac140</iidm:alias>
        <iidm:alias type="CGMES.Terminal_Boundary_2">57979d14-d1d8-4311-ae53-aa8890423885</iidm:alias>
        <iidm:alias type="CGMES.Terminal2">653bc4b8-518b-4adc-9d68-012fb641fb1d</iidm:alias>
        <iidm:property name="CGMES.Terminal_Boundary_1" value="1ef0715a-d5a9-477b-b6e7-b635529ac140"/>
        <iidm:property name="CGMES.Terminal_Boundary_2" value="57979d14-d1d8-4311-ae53-aa8890423885"/>
        <iidm:currentLimits1 permanentLimit="1443.0">
            <iidm:temporaryLimit name="58c959fd-3675-4ad4-a221-9647b57073dd" acceptableDuration="30" value="1500.0"/>
            <iidm:temporaryLimit name="b1714414-0394-42b6-b441-a664069554a2" acceptableDuration="25" value="1550.0"/>
            <iidm:temporaryLimit name="ad0fa884-ec20-4908-9986-48ab09ac55cd" acceptableDuration="20" value="1574.0"/>
            <iidm:temporaryLimit name="19627231-9a8b-45e1-815c-b280a66a59ca" acceptableDuration="10" value="1705.0"/>
        </iidm:currentLimits1>
        <iidm:currentLimits2 permanentLimit="1443.0">
            <iidm:temporaryLimit name="fff80a22-3a4b-4c22-94d2-2901e8085df1" acceptableDuration="20" value="1574.0"/>
            <iidm:temporaryLimit name="32ba352e-5877-4d42-b7e4-49a23b78297d" acceptableDuration="10" value="1705.0"/>
        </iidm:currentLimits2>
    </iidm:tieLine>
    <iidm:tieLine id="78736387-5f60-4832-b3fe-d50daf81b0a6 + 7f43f508-2496-4b64-9146-0a40406cbe49" name="BE-Line_3 + NL-Line_1" ucteXnodeCode="TN_Border_AL11" bus1="e44141af-f1dc-44d3-bfa4-b674e5c953d7" connectableBus1="e44141af-f1dc-44d3-bfa4-b674e5c953d7" voltageLevelId1="469df5f7-058f-4451-a998-57a48e8a56fe" bus2="81b0e447-181e-4aec-8921-f1dd7813bebc" connectableBus2="81b0e447-181e-4aec-8921-f1dd7813bebc" voltageLevelId2="c1d5bfde8f8011e08e4d00247eb1f55e" p1="-38.569653537208495" q1="54.95800933681396" p2="53.94503632517148" q2="-102.95494323415433" id_1="78736387-5f60-4832-b3fe-d50daf81b0a6" name_1="BE-Line_3" r_1="1.05" x_1="12.0" g1_1="6.0E-5" b1_1="1.49854E-4" g2_1="0.0" b2_1="0.0" id_2="7f43f508-2496-4b64-9146-0a40406cbe49" name_2="NL-Line_1" r_2="1.02" x_2="12.0" g1_2="0.0" b1_2="0.0" g2_2="3.0E-5" b2_2="1.413717E-4">
        <iidm:alias type="CGMES.Terminal2">357e3e14-c38e-4a7e-9c95-b3dbe158f5f3</iidm:alias>
        <iidm:alias type="CGMES.Terminal1">231a4cf8-5069-4d53-96e4-e839f073f1ea</iidm:alias>
        <iidm:alias type="CGMES.Terminal_Boundary_1">f3b56334-4638-49d3-a6a0-3f417422b8f5</iidm:alias>
        <iidm:alias type="CGMES.Terminal_Boundary_2">6b1cd30c-19ba-44e1-9447-d01db6b1ef9d</iidm:alias>
        <iidm:property name="CGMES.Terminal_Boundary_1" value="f3b56334-4638-49d3-a6a0-3f417422b8f5"/>
        <iidm:property name="CGMES.Terminal_Boundary_2" value="6b1cd30c-19ba-44e1-9447-d01db6b1ef9d"/>
        <iidm:currentLimits1 permanentLimit="1371.0">
            <iidm:temporaryLimit name="e207f382-e138-4a26-a40d-6c01dda96879" acceptableDuration="20" value="1443.0"/>
...